Version 4
SHEET 1 880 680
WIRE 480 -64 480 -80
WIRE 480 48 480 16
WIRE 528 48 528 32
WIRE 240 96 80 96
WIRE 336 96 240 96
WIRE 416 96 416 80
WIRE 464 96 416 96
WIRE 688 96 544 96
WIRE 784 96 688 96
WIRE 80 128 80 96
WIRE 240 128 240 96
WIRE 688 128 688 96
WIRE 784 128 784 96
WIRE 688 224 688 192
WIRE 80 240 80 208
WIRE 240 240 240 192
WIRE 784 240 784 208
FLAG 528 32 0
FLAG 480 -80 0
FLAG 80 240 0
FLAG 240 240 0
FLAG 688 224 0
FLAG 784 240 0
SYMBOL voltage 80 112 R0
WINDOW 123 0 0 Left 0
WINDOW 39 0 0 Left 0
SYMATTR InstName V1
SYMATTR Value 12
SYMBOL cap 224 128 R0
SYMATTR InstName C1
SYMATTR Value 100µ
SYMBOL ind 320 112 R270
WINDOW 0 32 56 VTop 2
WINDOW 3 5 56 VBottom 2
SYMATTR InstName L1
SYMATTR Value 100µ
SYMATTR SpiceLine Rser=1
SYMBOL cap 704 192 R180
WINDOW 0 24 56 Left 2
WINDOW 3 24 8 Left 2
SYMATTR InstName C2
SYMATTR Value 10µ
SYMBOL sw 560 96 R90
SYMATTR InstName S1
SYMATTR Value 5
SYMATTR SpiceModel MYSW
SYMBOL voltage 480 32 R180
WINDOW 123 0 0 Left 0
WINDOW 39 0 0 Left 0
SYMATTR InstName V2
SYMATTR Value PULSE(0 5 2m 1n 1n 2m)
SYMBOL res 768 112 R0
SYMATTR InstName R1
SYMATTR Value 10k
TEXT 46 296 Left 2 !.tran 5m
TEXT 184 -88 Left 2 !.model MYSW SW(Ron=0.01 Roff=1Meg Vt=4 Vh=0)
